<?xml version="1.0" encoding="UTF-8"?>

<!-- generated on Wed 30 Jan 2019 06:06:52 PM PST by Eclipse SUMO netedit Version 1.1.0
<configuration xmlns:xsi="http://www.w3.org/2001/XMLSchema-instance" xsi:noNamespaceSchemaLocation="http://sumo.dlr.de/xsd/netconvertConfiguration.xsd">

    <input>
        <sumo-net-file value="crossing.net.xml"/>
    </input>

    <output>
        <output-file value="crossing.net.xml"/>
    </output>

    <processing>
        <geometry.max-grade.fix value="false"/>
        <offset.disable-normalization value="true"/>
        <lefthand value="false"/>
    </processing>

    <junctions>
        <no-internal-links value="false"/>
        <no-turnarounds value="true"/>
        <junctions.corner-detail value="5"/>
        <junctions.limit-turn-speed value="5.5"/>
        <rectangular-lane-cut value="false"/>
    </junctions>

    <pedestrian>
        <walkingareas value="false"/>
    </pedestrian>

</configuration>
-->

<net version="1.1" junctionCornerDetail="5" limitTurnSpeed="5.50" xmlns:xsi="http://www.w3.org/2001/XMLSchema-instance" xsi:noNamespaceSchemaLocation="http://sumo.dlr.de/xsd/net_file.xsd">

    <location netOffset="0.00,0.00" convBoundary="0.00,0.00,100.00,100.00" origBoundary="-10000000000.00,-10000000000.00,10000000000.00,10000000000.00" projParameter="!"/>

    <edge id=":C_0" function="internal">
        <lane id=":C_0_0" index="0" disallow="pedestrian" speed="6.51" length="9.03" shape="48.40,57.20 48.05,54.75 47.00,53.00 45.25,51.95 42.80,51.60"/>
    </edge>
    <edge id=":C_1" function="internal">
        <lane id=":C_1_0" index="0" disallow="pedestrian" speed="13.89" length="14.40" shape="48.40,57.20 48.40,42.80"/>
    </edge>
    <edge id=":C_2" function="internal">
        <lane id=":C_2_0" index="0" disallow="pedestrian" speed="8.00" length="14.19" shape="48.40,57.20 48.95,53.35 50.60,50.60 53.35,48.95 57.20,48.40"/>
    </edge>
    <edge id=":C_3" function="internal">
        <lane id=":C_3_0" index="0" disallow="pedestrian" speed="6.51" length="4.75" shape="57.20,51.60 54.75,51.95 53.00,53.00 52.88,53.20"/>
    </edge>
    <edge id=":C_4" function="internal">
        <lane id=":C_4_0" index="0" disallow="pedestrian" speed="13.89" length="14.40" shape="57.20,51.60 42.80,51.60"/>
    </edge>
    <edge id=":C_5" function="internal">
        <lane id=":C_5_0" index="0" disallow="pedestrian" speed="8.00" length="5.93" shape="57.20,51.60 53.35,51.05 51.60,50.00"/>
    </edge>
    <edge id=":C_12" function="internal">
        <lane id=":C_12_0" index="0" disallow="pedestrian" speed="6.51" length="4.28" shape="52.88,53.20 51.95,54.75 51.60,57.20"/>
    </edge>
    <edge id=":C_13" function="internal">
        <lane id=":C_13_0" index="0" disallow="pedestrian" speed="8.00" length="8.26" shape="51.60,50.00 50.60,49.40 48.95,46.65 48.40,42.80"/>
    </edge>
    <edge id=":C_6" function="internal">
        <lane id=":C_6_0" index="0" disallow="pedestrian" speed="6.51" length="9.03" shape="51.60,42.80 51.95,45.25 53.00,47.00 54.75,48.05 57.20,48.40"/>
    </edge>
    <edge id=":C_7" function="internal">
        <lane id=":C_7_0" index="0" disallow="pedestrian" speed="13.89" length="14.40" shape="51.60,42.80 51.60,57.20"/>
    </edge>
    <edge id=":C_8" function="internal">
        <lane id=":C_8_0" index="0" disallow="pedestrian" speed="8.00" length="14.19" shape="51.60,42.80 51.05,46.65 49.40,49.40 46.65,51.05 42.80,51.60"/>
    </edge>
    <edge id=":C_9" function="internal">
        <lane id=":C_9_0" index="0" disallow="pedestrian" speed="6.51" length="4.75" shape="42.80,48.40 45.25,48.05 47.00,47.00 47.12,46.80"/>
    </edge>
    <edge id=":C_10" function="internal">
        <lane id=":C_10_0" index="0" disallow="pedestrian" speed="13.89" length="14.40" shape="42.80,48.40 57.20,48.40"/>
    </edge>
    <edge id=":C_11" function="internal">
        <lane id=":C_11_0" index="0" disallow="pedestrian" speed="8.00" length="5.93" shape="42.80,48.40 46.65,48.95 48.40,50.00"/>
    </edge>
    <edge id=":C_14" function="internal">
        <lane id=":C_14_0" index="0" disallow="pedestrian" speed="6.51" length="4.28" shape="47.12,46.80 48.05,45.25 48.40,42.80"/>
    </edge>
    <edge id=":C_15" function="internal">
        <lane id=":C_15_0" index="0" disallow="pedestrian" speed="8.00" length="8.26" shape="48.40,50.00 49.40,50.60 51.05,53.35 51.60,57.20"/>
    </edge>
    <edge id=":C_c0" function="crossing" crossingEdges="CN NC">
        <lane id=":C_c0_0" index="0" allow="pedestrian" speed="1.00" length="6.40" width="4.00" shape="53.20,55.20 46.80,55.20"/>
    </edge>
    <edge id=":C_c1" function="crossing" crossingEdges="CE EC">
        <lane id=":C_c1_0" index="0" allow="pedestrian" speed="1.00" length="6.40" width="4.00" shape="55.20,46.80 55.20,53.20"/>
    </edge>
    <edge id=":C_c2" function="crossing" crossingEdges="CS SC">
        <lane id=":C_c2_0" index="0" allow="pedestrian" speed="1.00" length="6.40" width="4.00" shape="46.80,44.80 53.20,44.80"/>
    </edge>
    <edge id=":C_c3" function="crossing" crossingEdges="CW WC">
        <lane id=":C_c3_0" index="0" allow="pedestrian" speed="1.00" length="6.40" width="4.00" shape="44.80,53.20 44.80,46.80"/>
    </edge>
    <edge id=":C_w0" function="walkingarea">
        <lane id=":C_w0_0" index="0" allow="pedestrian" speed="1.00" length="3.30" width="4.00" shape="42.80,53.20 42.80,55.20 44.80,57.20 46.80,57.20 46.69,55.98 46.36,54.98 45.80,54.20 45.02,53.64 44.02,53.31"/>
    </edge>
    <edge id=":C_w1" function="walkingarea">
        <lane id=":C_w1_0" index="0" allow="pedestrian" speed="1.00" length="3.30" width="4.00" shape="53.20,57.20 55.20,57.20 57.20,55.20 57.20,53.20 55.98,53.31 54.98,53.64 54.20,54.20 53.64,54.98 53.31,55.98"/>
    </edge>
    <edge id=":C_w2" function="walkingarea">
        <lane id=":C_w2_0" index="0" allow="pedestrian" speed="1.00" length="3.30" width="4.00" shape="57.20,46.80 57.20,44.80 55.20,42.80 53.20,42.80 53.31,44.02 53.64,45.02 54.20,45.80 54.98,46.36 55.98,46.69"/>
    </edge>
    <edge id=":C_w3" function="walkingarea">
        <lane id=":C_w3_0" index="0" allow="pedestrian" speed="1.00" length="3.30" width="4.00" shape="46.80,42.80 44.80,42.80 42.80,44.80 42.80,46.80 44.02,46.69 45.02,46.36 45.80,45.80 46.36,45.02 46.69,44.02"/>
    </edge>
    <edge id=":E_w0" function="walkingarea">
        <lane id=":E_w0_0" index="0" allow="pedestrian" speed="1.00" length="8.40" width="2.00" shape="100.00,53.20 100.00,55.20 100.00,44.80 100.00,46.80"/>
    </edge>
    <edge id=":N_w0" function="walkingarea">
        <lane id=":N_w0_0" index="0" allow="pedestrian" speed="1.00" length="8.40" width="2.00" shape="46.80,100.00 44.80,100.00 55.20,100.00 53.20,100.00"/>
    </edge>
    <edge id=":S_w0" function="walkingarea">
        <lane id=":S_w0_0" index="0" allow="pedestrian" speed="1.00" length="8.40" width="2.00" shape="53.20,0.00 55.20,0.00 44.80,0.00 46.80,0.00"/>
    </edge>
    <edge id=":W_w0" function="walkingarea">
        <lane id=":W_w0_0" index="0" allow="pedestrian" speed="1.00" length="8.40" width="2.00" shape="0.00,46.80 0.00,44.80 0.00,55.20 0.00,53.20"/>
    </edge>

    <edge id="CE" from="C" to="E" priority="1">
        <lane id="CE_0" index="0" allow="pedestrian" speed="13.89" length="42.80" width="2.00" shape="57.20,45.80 100.00,45.80"/>
        <lane id="CE_1" index="1" disallow="pedestrian" speed="13.89" length="42.80" shape="57.20,48.40 100.00,48.40"/>
    </edge>
    <edge id="CN" from="C" to="N" priority="1">
        <lane id="CN_0" index="0" allow="pedestrian" speed="13.89" length="42.80" width="2.00" shape="54.20,57.20 54.20,100.00"/>
        <lane id="CN_1" index="1" disallow="pedestrian" speed="13.89" length="42.80" shape="51.60,57.20 51.60,100.00"/>
    </edge>
    <edge id="CS" from="C" to="S" priority="1">
        <lane id="CS_0" index="0" allow="pedestrian" speed="13.89" length="42.80" width="2.00" shape="45.80,42.80 45.80,0.00"/>
        <lane id="CS_1" index="1" disallow="pedestrian" speed="13.89" length="42.80" shape="48.40,42.80 48.40,0.00"/>
    </edge>
    <edge id="CW" from="C" to="W" priority="1">
        <lane id="CW_0" index="0" allow="pedestrian" speed="13.89" length="42.80" width="2.00" shape="42.80,54.20 0.00,54.20"/>
        <lane id="CW_1" index="1" disallow="pedestrian" speed="13.89" length="42.80" shape="42.80,51.60 0.00,51.60"/>
    </edge>
    <edge id="EC" from="E" to="C" priority="1">
        <lane id="EC_0" index="0" allow="pedestrian" speed="13.89" length="42.80" width="2.00" shape="100.00,54.20 57.20,54.20"/>
        <lane id="EC_1" index="1" disallow="pedestrian" speed="13.89" length="42.80" shape="100.00,51.60 57.20,51.60"/>
    </edge>
    <edge id="NC" from="N" to="C" priority="1">
        <lane id="NC_0" index="0" allow="pedestrian" speed="13.89" length="42.80" width="2.00" shape="45.80,100.00 45.80,57.20"/>
        <lane id="NC_1" index="1" disallow="pedestrian" speed="13.89" length="42.80" shape="48.40,100.00 48.40,57.20"/>
    </edge>
    <edge id="SC" from="S" to="C" priority="-1">
        <lane id="SC_0" index="0" allow="pedestrian" speed="13.89" length="42.80" width="2.00" shape="54.20,0.00 54.20,42.80"/>
        <lane id="SC_1" index="1" disallow="pedestrian" speed="13.89" length="42.80" shape="51.60,0.00 51.60,42.80"/>
    </edge>
    <edge id="WC" from="W" to="C" priority="1">
        <lane id="WC_0" index="0" allow="pedestrian" speed="13.89" length="42.80" width="2.00" shape="0.00,45.80 42.80,45.80"/>
        <lane id="WC_1" index="1" disallow="pedestrian" speed="13.89" length="42.80" shape="0.00,48.40 42.80,48.40"/>
    </edge>

    <junction id="C" type="priority" x="50.00" y="50.00" incLanes="NC_0 NC_1 EC_0 EC_1 SC_0 SC_1 WC_0 WC_1 :C_w1_0 :C_w2_0 :C_w3_0 :C_w0_0" intLanes=":C_0_0 :C_1_0 :C_2_0 :C_12_0 :C_4_0 :C_13_0 :C_6_0 :C_7_0 :C_8_0 :C_14_0 :C_10_0 :C_15_0 :C_c0_0 :C_c1_0 :C_c2_0 :C_c3_0" shape="44.80,57.20 55.20,57.20 55.42,56.09 55.70,55.70 56.09,55.42 56.59,55.26 57.20,55.20 57.20,44.80 56.09,44.58 55.70,44.30 55.42,43.91 55.26,43.41 55.20,42.80 44.80,42.80 44.58,43.91 44.30,44.30 43.91,44.58 43.41,44.74 42.80,44.80 42.80,55.20 43.91,55.42 44.30,55.70 44.58,56.09 44.74,56.59">
        <request index="0"  response="1000000000010000" foes="1001000100010000" cont="0"/>
        <request index="1"  response="0000111000110000" foes="0101111100110000" cont="0"/>
        <request index="2"  response="0010110011110000" foes="0011110011110000" cont="0"/>
        <request index="3"  response="0001000000000000" foes="0011100010000000" cont="1"/>
        <request index="4"  response="0000000000000000" foes="1010100110000111" cont="0"/>
        <request index="5"  response="0100011000000000" foes="0110011110000110" cont="1"/>
        <request index="6"  response="0010010000000000" foes="0110010000000100" cont="0"/>
        <request index="7"  response="0000110000111000" foes="0101110000111100" cont="0"/>
        <request index="8"  response="1000110000110011" foes="1100110000110011" cont="0"/>
        <request index="9"  response="0100000000000000" foes="1100000000100010" cont="1"/>
        <request index="10" response="0000000000000000" foes="1010000111100110" cont="0"/>
        <request index="11" response="0001000000011000" foes="1001000110011110" cont="1"/>
        <request index="12" response="0000000010000111" foes="0000100010001111" cont="0"/>
        <request index="13" response="0000010000111000" foes="0000010001111100" cont="0"/>
        <request index="14" response="0000000111000010" foes="0000001111100010" cont="0"/>
        <request index="15" response="0000111000010000" foes="0000111100010001" cont="0"/>
    </junction>
    <junction id="E" type="dead_end" x="100.00" y="50.00" incLanes="CE_0 CE_1" intLanes="" shape="100.00,50.00 100.00,44.80 100.00,50.00"/>
    <junction id="N" type="dead_end" x="50.00" y="100.00" incLanes="CN_0 CN_1" intLanes="" shape="50.00,100.00 55.20,100.00 50.00,100.00"/>
    <junction id="S" type="dead_end" x="50.00" y="0.00" incLanes="CS_0 CS_1" intLanes="" shape="50.00,0.00 44.80,0.00 50.00,0.00"/>
    <junction id="W" type="dead_end" x="0.00" y="50.00" incLanes="CW_0 CW_1" intLanes="" shape="0.00,50.00 0.00,55.20 0.00,50.00"/>

    <junction id=":C_12_0" type="internal" x="52.88" y="53.20" incLanes=":C_3_0" intLanes=":C_7_0 :C_11_0 :C_c0_0 :C_c1_0"/>
    <junction id=":C_13_0" type="internal" x="51.60" y="50.00" incLanes=":C_5_0 WC_1" intLanes=":C_1_0 :C_2_0 :C_7_0 :C_8_0 :C_9_0 :C_10_0 :C_c1_0 :C_c2_0"/>
    <junction id=":C_14_0" type="internal" x="47.12" y="46.80" incLanes=":C_9_0" intLanes=":C_1_0 :C_5_0 :C_c2_0 :C_c3_0"/>
    <junction id=":C_15_0" type="internal" x="48.40" y="50.00" incLanes=":C_11_0 EC_1" intLanes=":C_1_0 :C_2_0 :C_3_0 :C_4_0 :C_7_0 :C_8_0 :C_c0_0 :C_c3_0"/>

    <connection from="EC" to="CN" fromLane="1" toLane="1" via=":C_3_0" dir="r" state="m"/>
    <connection from="EC" to="CW" fromLane="1" toLane="1" via=":C_4_0" dir="s" state="M"/>
    <connection from="EC" to="CS" fromLane="1" toLane="1" via=":C_5_0" dir="l" state="m"/>
    <connection from="NC" to="CW" fromLane="1" toLane="1" via=":C_0_0" dir="r" state="m"/>
    <connection from="NC" to="CS" fromLane="1" toLane="1" via=":C_1_0" dir="s" state="m"/>
    <connection from="NC" to="CE" fromLane="1" toLane="1" via=":C_2_0" dir="l" state="m"/>
    <connection from="SC" to="CE" fromLane="1" toLane="1" via=":C_6_0" dir="r" state="m"/>
    <connection from="SC" to="CN" fromLane="1" toLane="1" via=":C_7_0" dir="s" state="m"/>
    <connection from="SC" to="CW" fromLane="1" toLane="1" via=":C_8_0" dir="l" state="m"/>
    <connection from="WC" to="CS" fromLane="1" toLane="1" via=":C_9_0" dir="r" state="m"/>
    <connection from="WC" to="CE" fromLane="1" toLane="1" via=":C_10_0" dir="s" state="M"/>
    <connection from="WC" to="CN" fromLane="1" toLane="1" via=":C_11_0" dir="l" state="m"/>

    <connection from=":C_0" to="CW" fromLane="0" toLane="1" dir="r" state="M"/>
    <connection from=":C_1" to="CS" fromLane="0" toLane="1" dir="s" state="M"/>
    <connection from=":C_2" to="CE" fromLane="0" toLane="1" dir="l" state="M"/>
    <connection from=":C_3" to="CN" fromLane="0" toLane="1" via=":C_12_0" dir="r" state="m"/>
    <connection from=":C_12" to="CN" fromLane="0" toLane="1" dir="r" state="M"/>
    <connection from=":C_4" to="CW" fromLane="0" toLane="1" dir="s" state="M"/>
    <connection from=":C_5" to="CS" fromLane="0" toLane="1" via=":C_13_0" dir="l" state="m"/>
    <connection from=":C_13" to="CS" fromLane="0" toLane="1" dir="l" state="M"/>
    <connection from=":C_6" to="CE" fromLane="0" toLane="1" dir="r" state="M"/>
    <connection from=":C_7" to="CN" fromLane="0" toLane="1" dir="s" state="M"/>
    <connection from=":C_8" to="CW" fromLane="0" toLane="1" dir="l" state="M"/>
    <connection from=":C_9" to="CS" fromLane="0" toLane="1" via=":C_14_0" dir="r" state="m"/>
    <connection from=":C_14" to="CS" fromLane="0" toLane="1" dir="r" state="M"/>
    <connection from=":C_10" to="CE" fromLane="0" toLane="1" dir="s" state="M"/>
    <connection from=":C_11" to="CN" fromLane="0" toLane="1" via=":C_15_0" dir="l" state="m"/>
    <connection from=":C_15" to="CN" fromLane="0" toLane="1" dir="l" state="M"/>

    <connection from=":C_c0" to=":C_w0" fromLane="0" toLane="0" dir="s" state="M"/>
    <connection from=":C_c1" to=":C_w1" fromLane="0" toLane="0" dir="s" state="M"/>
    <connection from=":C_c2" to=":C_w2" fromLane="0" toLane="0" dir="s" state="M"/>
    <connection from=":C_c3" to=":C_w3" fromLane="0" toLane="0" dir="s" state="M"/>
    <connection from=":C_w0" to=":C_c3" fromLane="0" toLane="0" dir="s" state="m"/>
    <connection from=":C_w0" to="CW" fromLane="0" toLane="0" dir="s" state="M"/>
    <connection from="NC" to=":C_w0" fromLane="0" toLane="0" dir="s" state="M"/>
    <connection from=":C_w1" to=":C_c0" fromLane="0" toLane="0" dir="s" state="m"/>
    <connection from=":C_w1" to="CN" fromLane="0" toLane="0" dir="s" state="M"/>
    <connection from="EC" to=":C_w1" fromLane="0" toLane="0" dir="s" state="M"/>
    <connection from=":C_w2" to=":C_c1" fromLane="0" toLane="0" dir="s" state="m"/>
    <connection from=":C_w2" to="CE" fromLane="0" toLane="0" dir="s" state="M"/>
    <connection from="SC" to=":C_w2" fromLane="0" toLane="0" dir="s" state="M"/>
    <connection from=":C_w3" to=":C_c2" fromLane="0" toLane="0" dir="s" state="m"/>
    <connection from=":C_w3" to="CS" fromLane="0" toLane="0" dir="s" state="M"/>
    <connection from="WC" to=":C_w3" fromLane="0" toLane="0" dir="s" state="M"/>
    <connection from=":E_w0" to="EC" fromLane="0" toLane="0" dir="s" state="M"/>
    <connection from="CE" to=":E_w0" fromLane="0" toLane="0" dir="s" state="M"/>
    <connection from=":N_w0" to="NC" fromLane="0" toLane="0" dir="s" state="M"/>
    <connection from="CN" to=":N_w0" fromLane="0" toLane="0" dir="s" state="M"/>
    <connection from=":S_w0" to="SC" fromLane="0" toLane="0" dir="s" state="M"/>
    <connection from="CS" to=":S_w0" fromLane="0" toLane="0" dir="s" state="M"/>
    <connection from=":W_w0" to="WC" fromLane="0" toLane="0" dir="s" state="M"/>
    <connection from="CW" to=":W_w0" fromLane="0" toLane="0" dir="s" state="M"/>
</net>
