<?xml version="1.0" encoding="UTF-8"?>
<routes>
  <flow id="EW" begin="0" end="1000" probability="0.05" from="EC" to="CW" departLane="random" />
  <flow id="WE" begin="0" end="1000" probability="0.05" from="WC" to="CE" departLane="random" />
  <flow id="NS" begin="0" end="1000" probability="0.05" from="NC" to="CS" departLane="random" />
  <flow id="SN" begin="0" end="1000" probability="0.05" from="SC" to="CN" departLane="random" />

  <flow id="SW" begin="0" end="1000" probability="0.05" from="SC" to="CW"/>
  <flow id="WN" begin="0" end="1000" probability="0.05" from="WC" to="CN"/>
  <flow id="NE" begin="0" end="1000" probability="0.05" from="NC" to="CE"/>
  <flow id="ES" begin="0" end="1000" probability="0.05" from="EC" to="CS"/>

  <flow id="SE" begin="0" end="1000" probability="0.05" from="SC" to="CE"/>
  <flow id="EN" begin="0" end="1000" probability="0.05" from="EC" to="CN"/>
  <flow id="NW" begin="0" end="1000" probability="0.05" from="NC" to="CW"/>
  <flow id="WS" begin="0" end="1000" probability="0.05" from="WC" to="CS"/>
</routes>
