<?xml version="1.0" encoding="UTF-8"?>

<!-- generated on Wed 30 Jan 2019 01:09:10 PM PST by Eclipse SUMO netedit Version 1.1.0
<configuration xmlns:xsi="http://www.w3.org/2001/XMLSchema-instance" xsi:noNamespaceSchemaLocation="http://sumo.dlr.de/xsd/netconvertConfiguration.xsd">

    <input>
        <sumo-net-file value="/home/pxu/honda_research/sumo-sim/sumo_ws/scenario_4_left/scenario_4_left.net.xml"/>
    </input>

    <output>
        <output-file value="/home/pxu/honda_research/sumo-sim/sumo_ws/scenario_4_left/scenario_4_left.net.xml"/>
    </output>

    <processing>
        <geometry.max-grade.fix value="false"/>
        <offset.disable-normalization value="true"/>
        <lefthand value="true"/>
    </processing>

    <junctions>
        <no-internal-links value="false"/>
        <no-turnarounds value="true"/>
        <junctions.corner-detail value="5"/>
        <junctions.limit-turn-speed value="5.5"/>
        <rectangular-lane-cut value="false"/>
    </junctions>

    <pedestrian>
        <walkingareas value="false"/>
    </pedestrian>

</configuration>
-->

<net version="1.1" junctionCornerDetail="5" lefthand="true" limitTurnSpeed="5.50" xmlns:xsi="http://www.w3.org/2001/XMLSchema-instance" xsi:noNamespaceSchemaLocation="http://sumo.dlr.de/xsd/net_file.xsd">

    <location netOffset="0.00,0.00" convBoundary="0.00,-50.00,100.00,50.00" origBoundary="-10000000000.00,-10000000000.00,10000000000.00,10000000000.00" projParameter="!"/>

    <edge id=":node_C_0" function="internal">
        <lane id=":node_C_0_0" index="0" disallow="pedestrian" speed="13.89" length="9.40" shape="54.70,-1.60 45.30,-1.60"/>
    </edge>
    <edge id=":node_C_1" function="internal">
        <lane id=":node_C_1_0" index="0" disallow="pedestrian" speed="13.89" length="9.40" shape="45.30,1.60 54.70,1.60"/>
    </edge>
    <edge id=":node_C_c0" function="crossing" crossingEdges="EC CE">
        <lane id=":node_C_c0_0" index="0" allow="pedestrian" speed="1.00" length="6.40" width="4.00" shape="52.70,-3.20 52.70,3.20"/>
    </edge>
    <edge id=":node_C_c1" function="crossing" crossingEdges="WC CW">
        <lane id=":node_C_c1_0" index="0" allow="pedestrian" speed="1.00" length="6.40" width="4.00" shape="47.30,3.20 47.30,-3.20"/>
    </edge>
    <edge id=":node_C_w0" function="walkingarea">
        <lane id=":node_C_w0_0" index="0" allow="pedestrian" speed="1.00" length="3.57" width="4.00" shape="50.70,-3.20 54.70,-3.20 53.20,-4.70 50.00,-4.70 50.00,-4.70 46.80,-4.70 45.30,-3.20 49.30,-3.20"/>
    </edge>
    <edge id=":node_C_w1" function="walkingarea">
        <lane id=":node_C_w1_0" index="0" allow="pedestrian" speed="1.00" length="3.57" width="4.00" shape="49.30,3.20 45.30,3.20 46.80,4.70 50.00,4.70 50.00,4.70 53.20,4.70 54.70,3.20 50.70,3.20"/>
    </edge>
    <edge id=":node_N_w0" function="walkingarea">
        <lane id=":node_N_w0_0" index="0" allow="pedestrian" speed="1.00" length="3.20" width="3.20" shape="53.20,50.00 50.00,50.00 50.00,50.00 46.80,50.00"/>
    </edge>
    <edge id=":node_S_w0" function="walkingarea">
        <lane id=":node_S_w0_0" index="0" allow="pedestrian" speed="1.00" length="3.20" width="3.20" shape="46.80,-50.00 50.00,-50.00 50.00,-50.00 53.20,-50.00"/>
    </edge>

    <edge id="CE" from="node_C" to="node_E" priority="1">
        <lane id="CE_0" index="0" disallow="pedestrian" speed="13.89" length="45.30" shape="54.70,1.60 100.00,1.60"/>
    </edge>
    <edge id="CN" from="node_C" to="node_N" priority="2">
        <lane id="CN_0" index="0" allow="pedestrian" speed="13.89" length="45.30" shape="48.40,4.70 48.40,50.00"/>
    </edge>
    <edge id="CS" from="node_C" to="node_S" priority="2">
        <lane id="CS_0" index="0" allow="pedestrian" speed="13.89" length="45.30" shape="51.60,-4.70 51.60,-50.00"/>
    </edge>
    <edge id="CW" from="node_C" to="node_W" priority="1">
        <lane id="CW_0" index="0" disallow="pedestrian" speed="13.89" length="45.30" shape="45.30,-1.60 0.00,-1.60"/>
    </edge>
    <edge id="EC" from="node_E" to="node_C" priority="1">
        <lane id="EC_0" index="0" disallow="pedestrian" speed="13.89" length="45.30" shape="100.00,-1.60 54.70,-1.60"/>
    </edge>
    <edge id="NC" from="node_N" to="node_C" priority="2">
        <lane id="NC_0" index="0" allow="pedestrian" speed="13.89" length="45.30" shape="51.60,50.00 51.60,4.70"/>
    </edge>
    <edge id="SC" from="node_S" to="node_C" priority="2">
        <lane id="SC_0" index="0" allow="pedestrian" speed="13.89" length="45.30" shape="48.40,-50.00 48.40,-4.70"/>
    </edge>
    <edge id="WC" from="node_W" to="node_C" priority="1">
        <lane id="WC_0" index="0" disallow="pedestrian" speed="13.89" length="45.30" shape="0.00,1.60 45.30,1.60"/>
    </edge>

    <junction id="node_C" type="priority" x="50.00" y="0.00" incLanes="SC_0 EC_0 NC_0 WC_0 :node_C_w0_0 :node_C_w1_0" intLanes=":node_C_0_0 :node_C_1_0 :node_C_c0_0 :node_C_c1_0" shape="46.80,-4.70 53.20,-4.70 53.37,-3.87 53.58,-3.57 53.87,-3.37 54.24,-3.24 54.70,-3.20 54.70,3.20 53.87,3.37 53.57,3.57 53.37,3.87 53.24,4.24 53.20,4.70 46.80,4.70 46.63,3.87 46.42,3.57 46.13,3.37 45.76,3.24 45.30,3.20 45.30,-3.20 46.13,-3.37 46.42,-3.57 46.63,-3.87 46.76,-4.24">
        <request index="0" response="1100" foes="1100" cont="0"/>
        <request index="1" response="1100" foes="1100" cont="0"/>
        <request index="2" response="0000" foes="0011" cont="0"/>
        <request index="3" response="0000" foes="0011" cont="0"/>
    </junction>
    <junction id="node_E" type="dead_end" x="100.00" y="0.00" incLanes="CE_0" intLanes="" shape="100.00,-0.00 100.00,3.20 100.00,-0.00"/>
    <junction id="node_N" type="dead_end" x="50.00" y="50.00" incLanes="CN_0" intLanes="" shape="50.00,50.00 46.80,50.00 50.00,50.00"/>
    <junction id="node_S" type="dead_end" x="50.00" y="-50.00" incLanes="CS_0" intLanes="" shape="50.00,-50.00 53.20,-50.00 50.00,-50.00"/>
    <junction id="node_W" type="dead_end" x="0.00" y="0.00" incLanes="CW_0" intLanes="" shape="0.00,-0.00 0.00,-3.20 0.00,-0.00"/>

    <connection from="EC" to="CW" fromLane="0" toLane="0" via=":node_C_0_0" dir="s" state="m"/>
    <connection from="WC" to="CE" fromLane="0" toLane="0" via=":node_C_1_0" dir="s" state="m"/>

    <connection from=":node_C_0" to="CW" fromLane="0" toLane="0" dir="s" state="M"/>
    <connection from=":node_C_1" to="CE" fromLane="0" toLane="0" dir="s" state="M"/>

    <connection from=":node_C_c0" to=":node_C_w1" fromLane="0" toLane="0" dir="s" state="M"/>
    <connection from=":node_C_c1" to=":node_C_w0" fromLane="0" toLane="0" dir="s" state="M"/>
    <connection from=":node_C_w0" to=":node_C_c0" fromLane="0" toLane="0" dir="s" state="M"/>
    <connection from=":node_C_w0" to="CS" fromLane="0" toLane="0" dir="s" state="M"/>
    <connection from="SC" to=":node_C_w0" fromLane="0" toLane="0" dir="s" state="M"/>
    <connection from=":node_C_w1" to=":node_C_c1" fromLane="0" toLane="0" dir="s" state="M"/>
    <connection from=":node_C_w1" to="CN" fromLane="0" toLane="0" dir="s" state="M"/>
    <connection from="NC" to=":node_C_w1" fromLane="0" toLane="0" dir="s" state="M"/>
    <connection from=":node_N_w0" to="NC" fromLane="0" toLane="0" dir="s" state="M"/>
    <connection from="CN" to=":node_N_w0" fromLane="0" toLane="0" dir="s" state="M"/>
    <connection from=":node_S_w0" to="SC" fromLane="0" toLane="0" dir="s" state="M"/>
    <connection from="CS" to=":node_S_w0" fromLane="0" toLane="0" dir="s" state="M"/>
</net>
