<?xml version="1.0" encoding="UTF-8"?>

<!-- generated on Thu 31 Jan 2019 10:00:49 AM PST by Eclipse SUMO netedit Version 1.1.0
<configuration xmlns:xsi="http://www.w3.org/2001/XMLSchema-instance" xsi:noNamespaceSchemaLocation="http://sumo.dlr.de/xsd/netconvertConfiguration.xsd">

    <input>
        <sumo-net-file value="net.net.xml"/>
    </input>

    <output>
        <output-file value="net.net.xml"/>
    </output>

    <processing>
        <geometry.max-grade.fix value="false"/>
        <offset.disable-normalization value="true"/>
        <lefthand value="false"/>
    </processing>

    <junctions>
        <no-turnarounds value="true"/>
        <junctions.corner-detail value="0"/>
        <junctions.limit-turn-speed value="-1"/>
        <rectangular-lane-cut value="false"/>
    </junctions>

    <pedestrian>
        <walkingareas value="false"/>
    </pedestrian>

</configuration>
-->

<net version="1.1" xmlns:xsi="http://www.w3.org/2001/XMLSchema-instance" xsi:noNamespaceSchemaLocation="http://sumo.dlr.de/xsd/net_file.xsd">

    <location netOffset="0.00,0.00" convBoundary="0.00,0.00,40.00,0.00" origBoundary="0.00,0.00,6.00,0.00" projParameter="!"/>

    <edge id=":2_0" function="internal">
        <lane id=":2_0_0" index="0" speed="13.90" length="0.10" shape="20.00,-1.60 20.00,-1.60"/>
    </edge>

    <edge id="1to2" from="1" to="2" priority="-1">
        <lane id="1to2_0" index="0" speed="13.90" length="20.00" shape="0.00,-1.60 20.00,-1.60"/>
    </edge>
    <edge id="out" from="2" to="3" priority="-1">
        <lane id="out_0" index="0" speed="13.90" length="20.00" shape="20.00,-1.60 40.00,-1.60"/>
    </edge>

    <junction id="1" type="dead_end" x="0.00" y="0.00" incLanes="" intLanes="" shape="0.00,0.00 0.00,-3.20"/>
    <junction id="2" type="priority" x="20.00" y="0.00" incLanes="1to2_0" intLanes=":2_0_0" shape="20.00,0.00 20.00,-3.20 20.00,0.00">
        <request index="0" response="0" foes="0" cont="0"/>
    </junction>
    <junction id="3" type="dead_end" x="40.00" y="0.00" incLanes="out_0" intLanes="" shape="40.00,-3.20 40.00,0.00"/>

    <connection from="1to2" to="out" fromLane="0" toLane="0" via=":2_0_0" dir="s" state="M"/>

    <connection from=":2_0" to="out" fromLane="0" toLane="0" dir="s" state="M"/>

</net>
