<?xml version="1.0" encoding="UTF-8"?>

<!-- generated on Wed 30 Jan 2019 06:52:42 PM PST by Eclipse SUMO netedit Version 1.1.0
<configuration xmlns:xsi="http://www.w3.org/2001/XMLSchema-instance" xsi:noNamespaceSchemaLocation="http://sumo.dlr.de/xsd/netconvertConfiguration.xsd">

    <input>
        <sumo-net-file value="scenario_3.net.xml"/>
    </input>

    <output>
        <output-file value="scenario_3.net.xml"/>
    </output>

    <processing>
        <geometry.max-grade.fix value="false"/>
        <offset.disable-normalization value="true"/>
        <lefthand value="false"/>
    </processing>

    <junctions>
        <no-internal-links value="false"/>
        <no-turnarounds value="true"/>
        <junctions.corner-detail value="5"/>
        <junctions.limit-turn-speed value="5.5"/>
        <rectangular-lane-cut value="false"/>
    </junctions>

    <pedestrian>
        <walkingareas value="false"/>
    </pedestrian>

</configuration>
-->

<net version="1.1" junctionCornerDetail="5" limitTurnSpeed="5.50" xmlns:xsi="http://www.w3.org/2001/XMLSchema-instance" xsi:noNamespaceSchemaLocation="http://sumo.dlr.de/xsd/net_file.xsd">

    <location netOffset="0.00,0.00" convBoundary="0.00,-50.00,100.00,20.00" origBoundary="-10000000000.00,-10000000000.00,10000000000.00,10000000000.00" projParameter="!"/>

    <edge id=":C_0" function="internal">
        <lane id=":C_0_0" index="0" disallow="pedestrian" speed="13.89" length="14.40" shape="57.20,1.60 42.80,1.60"/>
    </edge>
    <edge id=":C_1" function="internal">
        <lane id=":C_1_0" index="0" disallow="pedestrian" speed="8.00" length="5.93" shape="57.20,1.60 53.35,1.05 51.60,-0.00"/>
    </edge>
    <edge id=":C_6" function="internal">
        <lane id=":C_6_0" index="0" disallow="pedestrian" speed="8.00" length="8.26" shape="51.60,-0.00 50.60,-0.60 48.95,-3.35 48.40,-7.20"/>
    </edge>
    <edge id=":C_2" function="internal">
        <lane id=":C_2_0" index="0" disallow="pedestrian" speed="6.51" length="9.03" shape="51.60,-7.20 51.95,-4.75 53.00,-3.00 54.75,-1.95 57.20,-1.60"/>
    </edge>
    <edge id=":C_3" function="internal">
        <lane id=":C_3_0" index="0" disallow="pedestrian" speed="8.00" length="14.19" shape="51.60,-7.20 51.05,-3.35 49.40,-0.60 46.65,1.05 42.80,1.60"/>
    </edge>
    <edge id=":C_4" function="internal">
        <lane id=":C_4_0" index="0" disallow="pedestrian" speed="6.51" length="4.75" shape="42.80,-1.60 45.25,-1.95 47.00,-3.00 47.12,-3.20"/>
    </edge>
    <edge id=":C_5" function="internal">
        <lane id=":C_5_0" index="0" disallow="pedestrian" speed="13.89" length="14.40" shape="42.80,-1.60 57.20,-1.60"/>
    </edge>
    <edge id=":C_7" function="internal">
        <lane id=":C_7_0" index="0" disallow="pedestrian" speed="6.51" length="4.28" shape="47.12,-3.20 48.05,-4.75 48.40,-7.20"/>
    </edge>
    <edge id=":C_c0" function="crossing" crossingEdges="CE EC">
        <lane id=":C_c0_0" index="0" allow="pedestrian" speed="1.00" length="6.40" width="4.00" shape="55.20,-3.20 55.20,3.20"/>
    </edge>
    <edge id=":C_c1" function="crossing" crossingEdges="CS SC">
        <lane id=":C_c1_0" index="0" allow="pedestrian" speed="1.00" length="6.40" width="4.00" shape="46.80,-5.20 53.20,-5.20"/>
    </edge>
    <edge id=":C_c2" function="crossing" crossingEdges="CW WC">
        <lane id=":C_c2_0" index="0" allow="pedestrian" speed="1.00" length="6.40" width="4.00" shape="44.80,3.20 44.80,-3.20"/>
    </edge>
    <edge id=":C_w0" function="walkingarea">
        <lane id=":C_w0_0" index="0" allow="pedestrian" speed="1.00" length="7.58" width="4.00" shape="46.80,3.20 42.80,3.20 42.80,5.20 48.00,7.20 50.00,7.20 50.00,7.20 52.00,7.20 57.20,5.20 57.20,3.20 53.20,3.20"/>
    </edge>
    <edge id=":C_w1" function="walkingarea">
        <lane id=":C_w1_0" index="0" allow="pedestrian" speed="1.00" length="3.30" width="4.00" shape="57.20,-3.20 57.20,-5.20 55.20,-7.20 53.20,-7.20 53.31,-5.98 53.64,-4.98 54.20,-4.20 54.98,-3.64 55.98,-3.31"/>
    </edge>
    <edge id=":C_w2" function="walkingarea">
        <lane id=":C_w2_0" index="0" allow="pedestrian" speed="1.00" length="3.30" width="4.00" shape="46.80,-7.20 44.80,-7.20 42.80,-5.20 42.80,-3.20 44.02,-3.31 45.02,-3.64 45.80,-4.20 46.36,-4.98 46.69,-5.98"/>
    </edge>
    <edge id=":E_w0" function="walkingarea">
        <lane id=":E_w0_0" index="0" allow="pedestrian" speed="1.00" length="8.40" width="2.00" shape="100.00,3.20 100.00,5.20 100.00,-5.20 100.00,-3.20"/>
    </edge>
    <edge id=":N_w0" function="walkingarea">
        <lane id=":N_w0_0" index="0" allow="pedestrian" speed="1.00" length="2.00" width="2.00" shape="50.00,20.00 48.00,20.00 52.00,20.00 50.00,20.00"/>
    </edge>
    <edge id=":S_w0" function="walkingarea">
        <lane id=":S_w0_0" index="0" allow="pedestrian" speed="1.00" length="8.40" width="2.00" shape="53.20,-50.00 55.20,-50.00 44.80,-50.00 46.80,-50.00"/>
    </edge>
    <edge id=":W_w0" function="walkingarea">
        <lane id=":W_w0_0" index="0" allow="pedestrian" speed="1.00" length="8.40" width="2.00" shape="0.00,-3.20 0.00,-5.20 0.00,5.20 0.00,3.20"/>
    </edge>

    <edge id="CE" from="C" to="E" priority="2">
        <lane id="CE_0" index="0" allow="pedestrian" speed="13.89" length="42.80" width="2.00" shape="57.20,-4.20 100.00,-4.20"/>
        <lane id="CE_1" index="1" disallow="pedestrian" speed="13.89" length="42.80" shape="57.20,-1.60 100.00,-1.60"/>
    </edge>
    <edge id="CN" from="C" to="N" priority="-1">
        <lane id="CN_0" index="0" allow="pedestrian" speed="13.89" length="12.80" width="2.00" shape="51.00,7.20 51.00,20.00"/>
    </edge>
    <edge id="CS" from="C" to="S" priority="2">
        <lane id="CS_0" index="0" allow="pedestrian" speed="13.89" length="42.80" width="2.00" shape="45.80,-7.20 45.80,-50.00"/>
        <lane id="CS_1" index="1" disallow="pedestrian" speed="13.89" length="42.80" shape="48.40,-7.20 48.40,-50.00"/>
    </edge>
    <edge id="CW" from="C" to="W" priority="2">
        <lane id="CW_0" index="0" allow="pedestrian" speed="13.89" length="42.80" width="2.00" shape="42.80,4.20 0.00,4.20"/>
        <lane id="CW_1" index="1" disallow="pedestrian" speed="13.89" length="42.80" shape="42.80,1.60 0.00,1.60"/>
    </edge>
    <edge id="EC" from="E" to="C" priority="2">
        <lane id="EC_0" index="0" allow="pedestrian" speed="13.89" length="42.80" width="2.00" shape="100.00,4.20 57.20,4.20"/>
        <lane id="EC_1" index="1" disallow="pedestrian" speed="13.89" length="42.80" shape="100.00,1.60 57.20,1.60"/>
    </edge>
    <edge id="NC" from="N" to="C" priority="-1">
        <lane id="NC_0" index="0" allow="pedestrian" speed="13.89" length="12.80" width="2.00" shape="49.00,20.00 49.00,7.20"/>
    </edge>
    <edge id="SC" from="S" to="C" priority="2">
        <lane id="SC_0" index="0" allow="pedestrian" speed="13.89" length="42.80" width="2.00" shape="54.20,-50.00 54.20,-7.20"/>
        <lane id="SC_1" index="1" disallow="pedestrian" speed="13.89" length="42.80" shape="51.60,-50.00 51.60,-7.20"/>
    </edge>
    <edge id="WC" from="W" to="C" priority="2">
        <lane id="WC_0" index="0" allow="pedestrian" speed="13.89" length="42.80" width="2.00" shape="0.00,-4.20 42.80,-4.20"/>
        <lane id="WC_1" index="1" disallow="pedestrian" speed="13.89" length="42.80" shape="0.00,-1.60 42.80,-1.60"/>
    </edge>

    <junction id="C" type="priority" x="50.00" y="0.00" incLanes="NC_0 EC_0 EC_1 SC_0 SC_1 WC_0 WC_1 :C_w1_0 :C_w2_0 :C_w0_0" intLanes=":C_0_0 :C_6_0 :C_2_0 :C_3_0 :C_7_0 :C_5_0 :C_c0_0 :C_c1_0 :C_c2_0" shape="48.00,7.20 52.00,7.20 52.58,6.09 53.30,5.70 54.31,5.42 55.61,5.26 57.20,5.20 57.20,-5.20 56.09,-5.42 55.70,-5.70 55.42,-6.09 55.26,-6.59 55.20,-7.20 44.80,-7.20 44.58,-6.09 44.30,-5.70 43.91,-5.42 43.41,-5.26 42.80,-5.20 42.80,5.20 45.69,5.42 46.70,5.70 47.42,6.09 47.86,6.59">
        <request index="0" response="000000000" foes="101001000" cont="0"/>
        <request index="1" response="010110000" foes="011111000" cont="1"/>
        <request index="2" response="001100000" foes="011100000" cont="0"/>
        <request index="3" response="100100011" foes="110100011" cont="0"/>
        <request index="4" response="010000000" foes="110000010" cont="1"/>
        <request index="5" response="000000000" foes="101001110" cont="0"/>
        <request index="6" response="000100011" foes="000100111" cont="0"/>
        <request index="7" response="000001100" foes="000011110" cont="0"/>
        <request index="8" response="000110001" foes="000111001" cont="0"/>
    </junction>
    <junction id="E" type="dead_end" x="100.00" y="0.00" incLanes="CE_0 CE_1" intLanes="" shape="100.00,0.00 100.00,-5.20 100.00,0.00"/>
    <junction id="N" type="dead_end" x="50.00" y="20.00" incLanes="CN_0" intLanes="" shape="50.00,20.00 52.00,20.00 50.00,20.00"/>
    <junction id="S" type="dead_end" x="50.00" y="-50.00" incLanes="CS_0 CS_1" intLanes="" shape="50.00,-50.00 44.80,-50.00 50.00,-50.00"/>
    <junction id="W" type="dead_end" x="0.00" y="0.00" incLanes="CW_0 CW_1" intLanes="" shape="0.00,0.00 0.00,5.20 0.00,0.00"/>

    <junction id=":C_6_0" type="internal" x="51.60" y="-0.00" incLanes=":C_1_0 WC_1" intLanes=":C_3_0 :C_4_0 :C_5_0 :C_c0_0 :C_c1_0"/>
    <junction id=":C_7_0" type="internal" x="47.12" y="-3.20" incLanes=":C_4_0" intLanes=":C_1_0 :C_c1_0 :C_c2_0"/>

    <connection from="EC" to="CW" fromLane="1" toLane="1" via=":C_0_0" dir="s" state="M"/>
    <connection from="EC" to="CS" fromLane="1" toLane="1" via=":C_1_0" dir="l" state="m"/>
    <connection from="SC" to="CE" fromLane="1" toLane="1" via=":C_2_0" dir="r" state="m"/>
    <connection from="SC" to="CW" fromLane="1" toLane="1" via=":C_3_0" dir="l" state="m"/>
    <connection from="WC" to="CS" fromLane="1" toLane="1" via=":C_4_0" dir="r" state="m"/>
    <connection from="WC" to="CE" fromLane="1" toLane="1" via=":C_5_0" dir="s" state="M"/>

    <connection from=":C_0" to="CW" fromLane="0" toLane="1" dir="s" state="M"/>
    <connection from=":C_1" to="CS" fromLane="0" toLane="1" via=":C_6_0" dir="l" state="m"/>
    <connection from=":C_6" to="CS" fromLane="0" toLane="1" dir="l" state="M"/>
    <connection from=":C_2" to="CE" fromLane="0" toLane="1" dir="r" state="M"/>
    <connection from=":C_3" to="CW" fromLane="0" toLane="1" dir="l" state="M"/>
    <connection from=":C_4" to="CS" fromLane="0" toLane="1" via=":C_7_0" dir="r" state="m"/>
    <connection from=":C_7" to="CS" fromLane="0" toLane="1" dir="r" state="M"/>
    <connection from=":C_5" to="CE" fromLane="0" toLane="1" dir="s" state="M"/>

    <connection from=":C_c0" to=":C_w0" fromLane="0" toLane="0" dir="s" state="M"/>
    <connection from=":C_c1" to=":C_w1" fromLane="0" toLane="0" dir="s" state="M"/>
    <connection from=":C_c2" to=":C_w2" fromLane="0" toLane="0" dir="s" state="M"/>
    <connection from=":C_w0" to=":C_c2" fromLane="0" toLane="0" dir="s" state="m"/>
    <connection from=":C_w0" to="CW" fromLane="0" toLane="0" dir="s" state="M"/>
    <connection from=":C_w0" to="CN" fromLane="0" toLane="0" dir="s" state="M"/>
    <connection from="NC" to=":C_w0" fromLane="0" toLane="0" dir="s" state="M"/>
    <connection from="EC" to=":C_w0" fromLane="0" toLane="0" dir="s" state="M"/>
    <connection from=":C_w1" to=":C_c0" fromLane="0" toLane="0" dir="s" state="m"/>
    <connection from=":C_w1" to="CE" fromLane="0" toLane="0" dir="s" state="M"/>
    <connection from="SC" to=":C_w1" fromLane="0" toLane="0" dir="s" state="M"/>
    <connection from=":C_w2" to=":C_c1" fromLane="0" toLane="0" dir="s" state="m"/>
    <connection from=":C_w2" to="CS" fromLane="0" toLane="0" dir="s" state="M"/>
    <connection from="WC" to=":C_w2" fromLane="0" toLane="0" dir="s" state="M"/>
    <connection from=":E_w0" to="EC" fromLane="0" toLane="0" dir="s" state="M"/>
    <connection from="CE" to=":E_w0" fromLane="0" toLane="0" dir="s" state="M"/>
    <connection from=":N_w0" to="NC" fromLane="0" toLane="0" dir="s" state="M"/>
    <connection from="CN" to=":N_w0" fromLane="0" toLane="0" dir="s" state="M"/>
    <connection from=":S_w0" to="SC" fromLane="0" toLane="0" dir="s" state="M"/>
    <connection from="CS" to=":S_w0" fromLane="0" toLane="0" dir="s" state="M"/>
    <connection from=":W_w0" to="WC" fromLane="0" toLane="0" dir="s" state="M"/>
    <connection from="CW" to=":W_w0" fromLane="0" toLane="0" dir="s" state="M"/>
</net>
