<?xml version="1.0" encoding="UTF-8"?>

<!-- generated on Wed 30 Jan 2019 06:41:02 PM PST by Eclipse SUMO netedit Version 1.1.0
<configuration xmlns:xsi="http://www.w3.org/2001/XMLSchema-instance" xsi:noNamespaceSchemaLocation="http://sumo.dlr.de/xsd/netconvertConfiguration.xsd">

    <input>
        <sumo-net-file value="scenario_2.net.xml"/>
    </input>

    <output>
        <output-file value="scenario_2.net.xml"/>
    </output>

    <processing>
        <geometry.max-grade.fix value="false"/>
        <offset.disable-normalization value="true"/>
        <lefthand value="false"/>
    </processing>

    <junctions>
        <no-internal-links value="false"/>
        <no-turnarounds value="true"/>
        <junctions.corner-detail value="5"/>
        <junctions.limit-turn-speed value="5.5"/>
        <rectangular-lane-cut value="false"/>
    </junctions>

    <pedestrian>
        <walkingareas value="false"/>
    </pedestrian>

</configuration>
-->

<net version="1.1" junctionCornerDetail="5" limitTurnSpeed="5.50" xmlns:xsi="http://www.w3.org/2001/XMLSchema-instance" xsi:noNamespaceSchemaLocation="http://sumo.dlr.de/xsd/net_file.xsd">

    <location netOffset="0.00,0.00" convBoundary="0.00,-50.00,100.00,50.00" origBoundary="-10000000000.00,-10000000000.00,10000000000.00,10000000000.00" projParameter="!"/>

    <edge id=":node_C_0" function="internal">
        <lane id=":node_C_0_0" index="0" disallow="pedestrian" speed="6.51" length="4.75" shape="42.00,13.60 41.65,11.15 40.60,9.40 40.40,9.28"/>
    </edge>
    <edge id=":node_C_1" function="internal">
        <lane id=":node_C_1_0" index="0" disallow="pedestrian" speed="13.89" length="27.20" shape="42.00,13.60 42.00,-13.60"/>
        <lane id=":node_C_1_1" index="1" disallow="pedestrian" speed="13.89" length="27.20" shape="45.20,13.60 45.20,-13.60"/>
        <lane id=":node_C_1_2" index="2" disallow="pedestrian" speed="13.89" length="27.20" shape="48.40,13.60 48.40,-13.60"/>
    </edge>
    <edge id=":node_C_4" function="internal">
        <lane id=":node_C_4_0" index="0" disallow="pedestrian" speed="10.36" length="7.98" shape="48.40,13.60 49.35,6.95 50.00,5.87"/>
    </edge>
    <edge id=":node_C_20" function="internal">
        <lane id=":node_C_20_0" index="0" disallow="pedestrian" speed="6.51" length="4.28" shape="40.40,9.28 38.85,8.35 36.40,8.00"/>
    </edge>
    <edge id=":node_C_21" function="internal">
        <lane id=":node_C_21_0" index="0" disallow="pedestrian" speed="10.36" length="16.53" shape="50.00,5.87 52.20,2.20 56.95,-0.65 63.60,-1.60"/>
    </edge>
    <edge id=":node_C_5" function="internal">
        <lane id=":node_C_5_0" index="0" disallow="pedestrian" speed="6.51" length="4.75" shape="63.60,8.00 61.15,8.35 59.40,9.40 59.28,9.60"/>
    </edge>
    <edge id=":node_C_6" function="internal">
        <lane id=":node_C_6_0" index="0" disallow="pedestrian" speed="13.89" length="27.20" shape="63.60,8.00 36.40,8.00"/>
        <lane id=":node_C_6_1" index="1" disallow="pedestrian" speed="13.89" length="27.20" shape="63.60,4.80 36.40,4.80"/>
        <lane id=":node_C_6_2" index="2" disallow="pedestrian" speed="13.89" length="27.20" shape="63.60,1.60 36.40,1.60"/>
    </edge>
    <edge id=":node_C_9" function="internal">
        <lane id=":node_C_9_0" index="0" disallow="pedestrian" speed="10.36" length="7.98" shape="63.60,1.60 56.95,0.65 55.87,-0.00"/>
    </edge>
    <edge id=":node_C_22" function="internal">
        <lane id=":node_C_22_0" index="0" disallow="pedestrian" speed="6.51" length="4.28" shape="59.28,9.60 58.35,11.15 58.00,13.60"/>
    </edge>
    <edge id=":node_C_23" function="internal">
        <lane id=":node_C_23_0" index="0" disallow="pedestrian" speed="10.36" length="16.53" shape="55.87,-0.00 52.20,-2.20 49.35,-6.95 48.40,-13.60"/>
    </edge>
    <edge id=":node_C_10" function="internal">
        <lane id=":node_C_10_0" index="0" disallow="pedestrian" speed="6.51" length="4.75" shape="58.00,-13.60 58.35,-11.15 59.40,-9.40 59.60,-9.28"/>
    </edge>
    <edge id=":node_C_11" function="internal">
        <lane id=":node_C_11_0" index="0" disallow="pedestrian" speed="13.89" length="27.20" shape="58.00,-13.60 58.00,13.60"/>
        <lane id=":node_C_11_1" index="1" disallow="pedestrian" speed="13.89" length="27.20" shape="54.80,-13.60 54.80,13.60"/>
        <lane id=":node_C_11_2" index="2" disallow="pedestrian" speed="13.89" length="27.20" shape="51.60,-13.60 51.60,13.60"/>
    </edge>
    <edge id=":node_C_14" function="internal">
        <lane id=":node_C_14_0" index="0" disallow="pedestrian" speed="10.36" length="7.98" shape="51.60,-13.60 50.65,-6.95 50.00,-5.87"/>
    </edge>
    <edge id=":node_C_24" function="internal">
        <lane id=":node_C_24_0" index="0" disallow="pedestrian" speed="6.51" length="4.28" shape="59.60,-9.28 61.15,-8.35 63.60,-8.00"/>
    </edge>
    <edge id=":node_C_25" function="internal">
        <lane id=":node_C_25_0" index="0" disallow="pedestrian" speed="10.36" length="16.53" shape="50.00,-5.87 47.80,-2.20 43.05,0.65 36.40,1.60"/>
    </edge>
    <edge id=":node_C_15" function="internal">
        <lane id=":node_C_15_0" index="0" disallow="pedestrian" speed="6.51" length="4.75" shape="36.40,-8.00 38.85,-8.35 40.60,-9.40 40.72,-9.60"/>
    </edge>
    <edge id=":node_C_16" function="internal">
        <lane id=":node_C_16_0" index="0" disallow="pedestrian" speed="13.89" length="27.20" shape="36.40,-8.00 63.60,-8.00"/>
        <lane id=":node_C_16_1" index="1" disallow="pedestrian" speed="13.89" length="27.20" shape="36.40,-4.80 63.60,-4.80"/>
        <lane id=":node_C_16_2" index="2" disallow="pedestrian" speed="13.89" length="27.20" shape="36.40,-1.60 63.60,-1.60"/>
    </edge>
    <edge id=":node_C_19" function="internal">
        <lane id=":node_C_19_0" index="0" disallow="pedestrian" speed="10.36" length="7.98" shape="36.40,-1.60 43.05,-0.65 44.13,0.00"/>
    </edge>
    <edge id=":node_C_26" function="internal">
        <lane id=":node_C_26_0" index="0" disallow="pedestrian" speed="6.51" length="4.28" shape="40.72,-9.60 41.65,-11.15 42.00,-13.60"/>
    </edge>
    <edge id=":node_C_27" function="internal">
        <lane id=":node_C_27_0" index="0" disallow="pedestrian" speed="10.36" length="16.53" shape="44.13,0.00 47.80,2.20 50.65,6.95 51.60,13.60"/>
    </edge>
    <edge id=":node_C_c0" function="crossing" crossingEdges="CN NC">
        <lane id=":node_C_c0_0" index="0" allow="pedestrian" speed="1.00" length="19.20" width="4.00" shape="59.60,11.60 40.40,11.60"/>
    </edge>
    <edge id=":node_C_c1" function="crossing" crossingEdges="CE EC">
        <lane id=":node_C_c1_0" index="0" allow="pedestrian" speed="1.00" length="19.20" width="4.00" shape="61.60,-9.60 61.60,9.60"/>
    </edge>
    <edge id=":node_C_c2" function="crossing" crossingEdges="CS SC">
        <lane id=":node_C_c2_0" index="0" allow="pedestrian" speed="1.00" length="19.20" width="4.00" shape="40.40,-11.60 59.60,-11.60"/>
    </edge>
    <edge id=":node_C_c3" function="crossing" crossingEdges="CW WC">
        <lane id=":node_C_c3_0" index="0" allow="pedestrian" speed="1.00" length="19.20" width="4.00" shape="38.40,9.60 38.40,-9.60"/>
    </edge>
    <edge id=":node_C_w0" function="walkingarea">
        <lane id=":node_C_w0_0" index="0" allow="pedestrian" speed="1.00" length="3.30" width="4.00" shape="36.40,9.60 36.40,11.60 38.40,13.60 40.40,13.60 40.29,12.38 39.96,11.38 39.40,10.60 38.62,10.04 37.62,9.71"/>
    </edge>
    <edge id=":node_C_w1" function="walkingarea">
        <lane id=":node_C_w1_0" index="0" allow="pedestrian" speed="1.00" length="3.30" width="4.00" shape="59.60,13.60 61.60,13.60 63.60,11.60 63.60,9.60 62.38,9.71 61.38,10.04 60.60,10.60 60.04,11.38 59.71,12.38"/>
    </edge>
    <edge id=":node_C_w2" function="walkingarea">
        <lane id=":node_C_w2_0" index="0" allow="pedestrian" speed="1.00" length="3.30" width="4.00" shape="63.60,-9.60 63.60,-11.60 61.60,-13.60 59.60,-13.60 59.71,-12.38 60.04,-11.38 60.60,-10.60 61.38,-10.04 62.38,-9.71"/>
    </edge>
    <edge id=":node_C_w3" function="walkingarea">
        <lane id=":node_C_w3_0" index="0" allow="pedestrian" speed="1.00" length="3.30" width="4.00" shape="40.40,-13.60 38.40,-13.60 36.40,-11.60 36.40,-9.60 37.62,-9.71 38.62,-10.04 39.40,-10.60 39.96,-11.38 40.29,-12.38"/>
    </edge>
    <edge id=":node_E_w0" function="walkingarea">
        <lane id=":node_E_w0_0" index="0" allow="pedestrian" speed="1.00" length="21.20" width="2.00" shape="100.00,9.60 100.00,11.60 100.00,-11.60 100.00,-9.60"/>
    </edge>
    <edge id=":node_N_w0" function="walkingarea">
        <lane id=":node_N_w0_0" index="0" allow="pedestrian" speed="1.00" length="21.20" width="2.00" shape="40.40,50.00 38.40,50.00 61.60,50.00 59.60,50.00"/>
    </edge>
    <edge id=":node_S_w0" function="walkingarea">
        <lane id=":node_S_w0_0" index="0" allow="pedestrian" speed="1.00" length="21.20" width="2.00" shape="59.60,-50.00 61.60,-50.00 38.40,-50.00 40.40,-50.00"/>
    </edge>
    <edge id=":node_W_w0" function="walkingarea">
        <lane id=":node_W_w0_0" index="0" allow="pedestrian" speed="1.00" length="21.20" width="2.00" shape="0.00,-9.60 0.00,-11.60 0.00,11.60 0.00,9.60"/>
    </edge>

    <edge id="CE" from="node_C" to="node_E" priority="2">
        <lane id="CE_0" index="0" allow="pedestrian" speed="13.89" length="36.40" width="2.00" shape="63.60,-10.60 100.00,-10.60"/>
        <lane id="CE_1" index="1" disallow="pedestrian" speed="13.89" length="36.40" shape="63.60,-8.00 100.00,-8.00"/>
        <lane id="CE_2" index="2" disallow="pedestrian" speed="13.89" length="36.40" shape="63.60,-4.80 100.00,-4.80"/>
        <lane id="CE_3" index="3" disallow="pedestrian" speed="13.89" length="36.40" shape="63.60,-1.60 100.00,-1.60"/>
    </edge>
    <edge id="CN" from="node_C" to="node_N" priority="2">
        <lane id="CN_0" index="0" allow="pedestrian" speed="13.89" length="36.40" width="2.00" shape="60.60,13.60 60.60,50.00"/>
        <lane id="CN_1" index="1" disallow="pedestrian" speed="13.89" length="36.40" shape="58.00,13.60 58.00,50.00"/>
        <lane id="CN_2" index="2" disallow="pedestrian" speed="13.89" length="36.40" shape="54.80,13.60 54.80,50.00"/>
        <lane id="CN_3" index="3" disallow="pedestrian" speed="13.89" length="36.40" shape="51.60,13.60 51.60,50.00"/>
    </edge>
    <edge id="CS" from="node_C" to="node_S" priority="2">
        <lane id="CS_0" index="0" allow="pedestrian" speed="13.89" length="36.40" width="2.00" shape="39.40,-13.60 39.40,-50.00"/>
        <lane id="CS_1" index="1" disallow="pedestrian" speed="13.89" length="36.40" shape="42.00,-13.60 42.00,-50.00"/>
        <lane id="CS_2" index="2" disallow="pedestrian" speed="13.89" length="36.40" shape="45.20,-13.60 45.20,-50.00"/>
        <lane id="CS_3" index="3" disallow="pedestrian" speed="13.89" length="36.40" shape="48.40,-13.60 48.40,-50.00"/>
    </edge>
    <edge id="CW" from="node_C" to="node_W" priority="2">
        <lane id="CW_0" index="0" allow="pedestrian" speed="13.89" length="36.40" width="2.00" shape="36.40,10.60 0.00,10.60"/>
        <lane id="CW_1" index="1" disallow="pedestrian" speed="13.89" length="36.40" shape="36.40,8.00 0.00,8.00"/>
        <lane id="CW_2" index="2" disallow="pedestrian" speed="13.89" length="36.40" shape="36.40,4.80 0.00,4.80"/>
        <lane id="CW_3" index="3" disallow="pedestrian" speed="13.89" length="36.40" shape="36.40,1.60 0.00,1.60"/>
    </edge>
    <edge id="EC" from="node_E" to="node_C" priority="2">
        <lane id="EC_0" index="0" allow="pedestrian" speed="13.89" length="36.40" width="2.00" shape="100.00,10.60 63.60,10.60"/>
        <lane id="EC_1" index="1" disallow="pedestrian" speed="13.89" length="36.40" shape="100.00,8.00 63.60,8.00"/>
        <lane id="EC_2" index="2" disallow="pedestrian" speed="13.89" length="36.40" shape="100.00,4.80 63.60,4.80"/>
        <lane id="EC_3" index="3" disallow="pedestrian" speed="13.89" length="36.40" shape="100.00,1.60 63.60,1.60"/>
    </edge>
    <edge id="NC" from="node_N" to="node_C" priority="2">
        <lane id="NC_0" index="0" allow="pedestrian" speed="13.89" length="36.40" width="2.00" shape="39.40,50.00 39.40,13.60"/>
        <lane id="NC_1" index="1" disallow="pedestrian" speed="13.89" length="36.40" shape="42.00,50.00 42.00,13.60"/>
        <lane id="NC_2" index="2" disallow="pedestrian" speed="13.89" length="36.40" shape="45.20,50.00 45.20,13.60"/>
        <lane id="NC_3" index="3" disallow="pedestrian" speed="13.89" length="36.40" shape="48.40,50.00 48.40,13.60"/>
    </edge>
    <edge id="SC" from="node_S" to="node_C" priority="2">
        <lane id="SC_0" index="0" allow="pedestrian" speed="13.89" length="36.40" width="2.00" shape="60.60,-50.00 60.60,-13.60"/>
        <lane id="SC_1" index="1" disallow="pedestrian" speed="13.89" length="36.40" shape="58.00,-50.00 58.00,-13.60"/>
        <lane id="SC_2" index="2" disallow="pedestrian" speed="13.89" length="36.40" shape="54.80,-50.00 54.80,-13.60"/>
        <lane id="SC_3" index="3" disallow="pedestrian" speed="13.89" length="36.40" shape="51.60,-50.00 51.60,-13.60"/>
    </edge>
    <edge id="WC" from="node_W" to="node_C" priority="2">
        <lane id="WC_0" index="0" allow="pedestrian" speed="13.89" length="36.40" width="2.00" shape="0.00,-10.60 36.40,-10.60"/>
        <lane id="WC_1" index="1" disallow="pedestrian" speed="13.89" length="36.40" shape="0.00,-8.00 36.40,-8.00"/>
        <lane id="WC_2" index="2" disallow="pedestrian" speed="13.89" length="36.40" shape="0.00,-4.80 36.40,-4.80"/>
        <lane id="WC_3" index="3" disallow="pedestrian" speed="13.89" length="36.40" shape="0.00,-1.60 36.40,-1.60"/>
    </edge>

    <tlLogic id="node_C" type="static" programID="0" offset="0">
        <phase duration="37" state="gGGGgrrrrrgGGGgrrrrrrGrG"/>
        <phase duration="5"  state="gGGGgrrrrrgGGGgrrrrrrrrr"/>
        <phase duration="3"  state="yyyyyrrrrryyyyyrrrrrrrrr"/>
        <phase duration="37" state="rrrrrgGGGgrrrrrgGGGgGrGr"/>
        <phase duration="5"  state="rrrrrgGGGgrrrrrgGGGgrrrr"/>
        <phase duration="3"  state="rrrrryyyyyrrrrryyyyyrrrr"/>
    </tlLogic>

    <junction id="node_C" type="traffic_light" x="50.00" y="0.00" incLanes="NC_0 NC_1 NC_2 NC_3 EC_0 EC_1 EC_2 EC_3 SC_0 SC_1 SC_2 SC_3 WC_0 WC_1 WC_2 WC_3 :node_C_w1_0 :node_C_w2_0 :node_C_w3_0 :node_C_w0_0" intLanes=":node_C_20_0 :node_C_1_0 :node_C_1_1 :node_C_1_2 :node_C_21_0 :node_C_22_0 :node_C_6_0 :node_C_6_1 :node_C_6_2 :node_C_23_0 :node_C_24_0 :node_C_11_0 :node_C_11_1 :node_C_11_2 :node_C_25_0 :node_C_26_0 :node_C_16_0 :node_C_16_1 :node_C_16_2 :node_C_27_0 :node_C_c0_0 :node_C_c1_0 :node_C_c2_0 :node_C_c3_0" shape="38.40,13.60 61.60,13.60 61.82,12.49 62.10,12.10 62.49,11.82 62.99,11.66 63.60,11.60 63.60,-11.60 62.49,-11.82 62.10,-12.10 61.82,-12.49 61.66,-12.99 61.60,-13.60 38.40,-13.60 38.18,-12.49 37.90,-12.10 37.51,-11.82 37.01,-11.66 36.40,-11.60 36.40,11.60 37.51,11.82 37.90,12.10 38.18,12.49 38.34,12.99">
        <request index="0"  response="100100000000000000000000" foes="100100000000000111000000" cont="1"/>
        <request index="1"  response="010110001000001000000000" foes="010111111100001111000000" cont="0"/>
        <request index="2"  response="010110001000001000000000" foes="010111111100001111000000" cont="0"/>
        <request index="3"  response="010110001000001000000000" foes="010111111100001111000000" cont="0"/>
        <request index="4"  response="001110000011101000000000" foes="001111110011101111000000" cont="1"/>
        <request index="5"  response="001100000011100000000000" foes="001100000011100000000000" cont="1"/>
        <request index="6"  response="101000000111100000011111" foes="101010000111100000011111" cont="0"/>
        <request index="7"  response="101000000111100000011111" foes="101010000111100000011111" cont="0"/>
        <request index="8"  response="101000000111100000011111" foes="101010000111100000011111" cont="0"/>
        <request index="9"  response="011001110111100000011110" foes="011001110111100000011110" cont="1"/>
        <request index="10" response="011000000000000000000000" foes="011001110000000000000000" cont="1"/>
        <request index="11" response="010110000000001000100000" foes="010111110000001111110000" cont="0"/>
        <request index="12" response="010110000000001000100000" foes="010111110000001111110000" cont="0"/>
        <request index="13" response="010110000000001000100000" foes="010111110000001111110000" cont="0"/>
        <request index="14" response="110010000000001000001110" foes="110011110000001111001110" cont="1"/>
        <request index="15" response="110000000000000000001110" foes="110000000000000000001110" cont="1"/>
        <request index="16" response="101000000111110000011110" foes="101000000111111000011110" cont="0"/>
        <request index="17" response="101000000111110000011110" foes="101000000111111000011110" cont="0"/>
        <request index="18" response="101000000111110000011110" foes="101000000111111000011110" cont="0"/>
        <request index="19" response="100100000111100111011110" foes="100100000111100111011110" cont="1"/>
        <request index="20" response="000000000000000000000000" foes="000010000011100000111111" cont="0"/>
        <request index="21" response="000000000000000000000000" foes="000001110000011111110000" cont="0"/>
        <request index="22" response="000000000000000000000000" foes="000000001111111000001110" cont="0"/>
        <request index="23" response="000000000000000000000000" foes="000011111100000111000001" cont="0"/>
    </junction>
    <junction id="node_E" type="dead_end" x="100.00" y="0.00" incLanes="CE_0 CE_1 CE_2 CE_3" intLanes="" shape="100.00,0.00 100.00,-11.60 100.00,0.00"/>
    <junction id="node_N" type="dead_end" x="50.00" y="50.00" incLanes="CN_0 CN_1 CN_2 CN_3" intLanes="" shape="50.00,50.00 61.60,50.00 50.00,50.00"/>
    <junction id="node_S" type="dead_end" x="50.00" y="-50.00" incLanes="CS_0 CS_1 CS_2 CS_3" intLanes="" shape="50.00,-50.00 38.40,-50.00 50.00,-50.00"/>
    <junction id="node_W" type="dead_end" x="0.00" y="0.00" incLanes="CW_0 CW_1 CW_2 CW_3" intLanes="" shape="0.00,0.00 0.00,11.60 0.00,0.00"/>

    <junction id=":node_C_20_0" type="internal" x="40.40" y="9.28" incLanes=":node_C_0_0" intLanes=":node_C_6_0 :node_C_6_1 :node_C_6_2 :node_C_14_0 :node_C_c0_0 :node_C_c3_0"/>
    <junction id=":node_C_21_0" type="internal" x="50.00" y="5.87" incLanes=":node_C_4_0 SC_1 SC_2 SC_3" intLanes=":node_C_6_0 :node_C_6_1 :node_C_6_2 :node_C_9_0 :node_C_10_0 :node_C_11_0 :node_C_11_1 :node_C_11_2 :node_C_16_0 :node_C_16_1 :node_C_16_2 :node_C_19_0 :node_C_c0_0 :node_C_c1_0"/>
    <junction id=":node_C_22_0" type="internal" x="59.28" y="9.60" incLanes=":node_C_5_0" intLanes=":node_C_11_0 :node_C_11_1 :node_C_11_2 :node_C_19_0 :node_C_c0_0 :node_C_c1_0"/>
    <junction id=":node_C_23_0" type="internal" x="55.87" y="-0.00" incLanes=":node_C_9_0 WC_1 WC_2 WC_3" intLanes=":node_C_1_0 :node_C_1_1 :node_C_1_2 :node_C_4_0 :node_C_11_0 :node_C_11_1 :node_C_11_2 :node_C_14_0 :node_C_15_0 :node_C_16_0 :node_C_16_1 :node_C_16_2 :node_C_c1_0 :node_C_c2_0"/>
    <junction id=":node_C_24_0" type="internal" x="59.60" y="-9.28" incLanes=":node_C_10_0" intLanes=":node_C_4_0 :node_C_16_0 :node_C_16_1 :node_C_16_2 :node_C_c1_0 :node_C_c2_0"/>
    <junction id=":node_C_25_0" type="internal" x="50.00" y="-5.87" incLanes=":node_C_14_0 NC_1 NC_2 NC_3" intLanes=":node_C_0_0 :node_C_1_0 :node_C_1_1 :node_C_1_2 :node_C_6_0 :node_C_6_1 :node_C_6_2 :node_C_9_0 :node_C_16_0 :node_C_16_1 :node_C_16_2 :node_C_19_0 :node_C_c2_0 :node_C_c3_0"/>
    <junction id=":node_C_26_0" type="internal" x="40.72" y="-9.60" incLanes=":node_C_15_0" intLanes=":node_C_1_0 :node_C_1_1 :node_C_1_2 :node_C_9_0 :node_C_c2_0 :node_C_c3_0"/>
    <junction id=":node_C_27_0" type="internal" x="44.13" y="0.00" incLanes=":node_C_19_0 EC_1 EC_2 EC_3" intLanes=":node_C_1_0 :node_C_1_1 :node_C_1_2 :node_C_4_0 :node_C_5_0 :node_C_6_0 :node_C_6_1 :node_C_6_2 :node_C_11_0 :node_C_11_1 :node_C_11_2 :node_C_14_0 :node_C_c0_0 :node_C_c3_0"/>

    <connection from="EC" to="CN" fromLane="1" toLane="1" via=":node_C_5_0" tl="node_C" linkIndex="5" dir="r" state="o"/>
    <connection from="EC" to="CW" fromLane="1" toLane="1" via=":node_C_6_0" tl="node_C" linkIndex="6" dir="s" state="o"/>
    <connection from="EC" to="CW" fromLane="2" toLane="2" via=":node_C_6_1" tl="node_C" linkIndex="7" dir="s" state="o"/>
    <connection from="EC" to="CW" fromLane="3" toLane="3" via=":node_C_6_2" tl="node_C" linkIndex="8" dir="s" state="o"/>
    <connection from="EC" to="CS" fromLane="3" toLane="3" via=":node_C_9_0" tl="node_C" linkIndex="9" dir="l" state="o"/>
    <connection from="NC" to="CW" fromLane="1" toLane="1" via=":node_C_0_0" tl="node_C" linkIndex="0" dir="r" state="o"/>
    <connection from="NC" to="CS" fromLane="1" toLane="1" via=":node_C_1_0" tl="node_C" linkIndex="1" dir="s" state="o"/>
    <connection from="NC" to="CS" fromLane="2" toLane="2" via=":node_C_1_1" tl="node_C" linkIndex="2" dir="s" state="o"/>
    <connection from="NC" to="CS" fromLane="3" toLane="3" via=":node_C_1_2" tl="node_C" linkIndex="3" dir="s" state="o"/>
    <connection from="NC" to="CE" fromLane="3" toLane="3" via=":node_C_4_0" tl="node_C" linkIndex="4" dir="l" state="o"/>
    <connection from="SC" to="CE" fromLane="1" toLane="1" via=":node_C_10_0" tl="node_C" linkIndex="10" dir="r" state="o"/>
    <connection from="SC" to="CN" fromLane="1" toLane="1" via=":node_C_11_0" tl="node_C" linkIndex="11" dir="s" state="o"/>
    <connection from="SC" to="CN" fromLane="2" toLane="2" via=":node_C_11_1" tl="node_C" linkIndex="12" dir="s" state="o"/>
    <connection from="SC" to="CN" fromLane="3" toLane="3" via=":node_C_11_2" tl="node_C" linkIndex="13" dir="s" state="o"/>
    <connection from="SC" to="CW" fromLane="3" toLane="3" via=":node_C_14_0" tl="node_C" linkIndex="14" dir="l" state="o"/>
    <connection from="WC" to="CS" fromLane="1" toLane="1" via=":node_C_15_0" tl="node_C" linkIndex="15" dir="r" state="o"/>
    <connection from="WC" to="CE" fromLane="1" toLane="1" via=":node_C_16_0" tl="node_C" linkIndex="16" dir="s" state="o"/>
    <connection from="WC" to="CE" fromLane="2" toLane="2" via=":node_C_16_1" tl="node_C" linkIndex="17" dir="s" state="o"/>
    <connection from="WC" to="CE" fromLane="3" toLane="3" via=":node_C_16_2" tl="node_C" linkIndex="18" dir="s" state="o"/>
    <connection from="WC" to="CN" fromLane="3" toLane="3" via=":node_C_19_0" tl="node_C" linkIndex="19" dir="l" state="o"/>

    <connection from=":node_C_0" to="CW" fromLane="0" toLane="1" via=":node_C_20_0" dir="r" state="m"/>
    <connection from=":node_C_20" to="CW" fromLane="0" toLane="1" dir="r" state="M"/>
    <connection from=":node_C_1" to="CS" fromLane="0" toLane="1" dir="s" state="M"/>
    <connection from=":node_C_1" to="CS" fromLane="1" toLane="2" dir="s" state="M"/>
    <connection from=":node_C_1" to="CS" fromLane="2" toLane="3" dir="s" state="M"/>
    <connection from=":node_C_4" to="CE" fromLane="0" toLane="3" via=":node_C_21_0" dir="l" state="m"/>
    <connection from=":node_C_21" to="CE" fromLane="0" toLane="3" dir="l" state="M"/>
    <connection from=":node_C_5" to="CN" fromLane="0" toLane="1" via=":node_C_22_0" dir="r" state="m"/>
    <connection from=":node_C_22" to="CN" fromLane="0" toLane="1" dir="r" state="M"/>
    <connection from=":node_C_6" to="CW" fromLane="0" toLane="1" dir="s" state="M"/>
    <connection from=":node_C_6" to="CW" fromLane="1" toLane="2" dir="s" state="M"/>
    <connection from=":node_C_6" to="CW" fromLane="2" toLane="3" dir="s" state="M"/>
    <connection from=":node_C_9" to="CS" fromLane="0" toLane="3" via=":node_C_23_0" dir="l" state="m"/>
    <connection from=":node_C_23" to="CS" fromLane="0" toLane="3" dir="l" state="M"/>
    <connection from=":node_C_10" to="CE" fromLane="0" toLane="1" via=":node_C_24_0" dir="r" state="m"/>
    <connection from=":node_C_24" to="CE" fromLane="0" toLane="1" dir="r" state="M"/>
    <connection from=":node_C_11" to="CN" fromLane="0" toLane="1" dir="s" state="M"/>
    <connection from=":node_C_11" to="CN" fromLane="1" toLane="2" dir="s" state="M"/>
    <connection from=":node_C_11" to="CN" fromLane="2" toLane="3" dir="s" state="M"/>
    <connection from=":node_C_14" to="CW" fromLane="0" toLane="3" via=":node_C_25_0" dir="l" state="m"/>
    <connection from=":node_C_25" to="CW" fromLane="0" toLane="3" dir="l" state="M"/>
    <connection from=":node_C_15" to="CS" fromLane="0" toLane="1" via=":node_C_26_0" dir="r" state="m"/>
    <connection from=":node_C_26" to="CS" fromLane="0" toLane="1" dir="r" state="M"/>
    <connection from=":node_C_16" to="CE" fromLane="0" toLane="1" dir="s" state="M"/>
    <connection from=":node_C_16" to="CE" fromLane="1" toLane="2" dir="s" state="M"/>
    <connection from=":node_C_16" to="CE" fromLane="2" toLane="3" dir="s" state="M"/>
    <connection from=":node_C_19" to="CN" fromLane="0" toLane="3" via=":node_C_27_0" dir="l" state="m"/>
    <connection from=":node_C_27" to="CN" fromLane="0" toLane="3" dir="l" state="M"/>

    <connection from=":node_C_c0" to=":node_C_w0" fromLane="0" toLane="0" tl="node_C" linkIndex="14" dir="s" state="M"/>
    <connection from=":node_C_c1" to=":node_C_w1" fromLane="0" toLane="0" tl="node_C" linkIndex="15" dir="s" state="M"/>
    <connection from=":node_C_c2" to=":node_C_w2" fromLane="0" toLane="0" tl="node_C" linkIndex="16" dir="s" state="M"/>
    <connection from=":node_C_c3" to=":node_C_w3" fromLane="0" toLane="0" tl="node_C" linkIndex="17" dir="s" state="M"/>
    <connection from=":node_C_w0" to=":node_C_c3" fromLane="0" toLane="0" tl="node_C" linkIndex="23" dir="s" state="M"/>
    <connection from=":node_C_w0" to="CW" fromLane="0" toLane="0" dir="s" state="M"/>
    <connection from="NC" to=":node_C_w0" fromLane="0" toLane="0" dir="s" state="M"/>
    <connection from=":node_C_w1" to=":node_C_c0" fromLane="0" toLane="0" tl="node_C" linkIndex="20" dir="s" state="M"/>
    <connection from=":node_C_w1" to="CN" fromLane="0" toLane="0" dir="s" state="M"/>
    <connection from="EC" to=":node_C_w1" fromLane="0" toLane="0" dir="s" state="M"/>
    <connection from=":node_C_w2" to=":node_C_c1" fromLane="0" toLane="0" tl="node_C" linkIndex="21" dir="s" state="M"/>
    <connection from=":node_C_w2" to="CE" fromLane="0" toLane="0" dir="s" state="M"/>
    <connection from="SC" to=":node_C_w2" fromLane="0" toLane="0" dir="s" state="M"/>
    <connection from=":node_C_w3" to=":node_C_c2" fromLane="0" toLane="0" tl="node_C" linkIndex="22" dir="s" state="M"/>
    <connection from=":node_C_w3" to="CS" fromLane="0" toLane="0" dir="s" state="M"/>
    <connection from="WC" to=":node_C_w3" fromLane="0" toLane="0" dir="s" state="M"/>
    <connection from=":node_E_w0" to="EC" fromLane="0" toLane="0" dir="s" state="M"/>
    <connection from="CE" to=":node_E_w0" fromLane="0" toLane="0" dir="s" state="M"/>
    <connection from=":node_N_w0" to="NC" fromLane="0" toLane="0" dir="s" state="M"/>
    <connection from="CN" to=":node_N_w0" fromLane="0" toLane="0" dir="s" state="M"/>
    <connection from=":node_S_w0" to="SC" fromLane="0" toLane="0" dir="s" state="M"/>
    <connection from="CS" to=":node_S_w0" fromLane="0" toLane="0" dir="s" state="M"/>
    <connection from=":node_W_w0" to="WC" fromLane="0" toLane="0" dir="s" state="M"/>
    <connection from="CW" to=":node_W_w0" fromLane="0" toLane="0" dir="s" state="M"/>
</net>
