<routes>

	<!-- define car types -->
	<vType id="carA" vClass="passenger" length="5" maxSpeed="70" carFollowModel="Krauss" accel="10.0" decel="4.5" sigma="0.5" color="1,1,1" />
	<vType id="carB" vClass="passenger" length="5" maxSpeed="70" carFollowModel="Krauss" accel="2.6" decel="4.5" sigma="0.5" color="1,0,0" />
	<vType id="carC" vClass="passenger" length="5" maxSpeed="70" carFollowModel="Krauss" accel="2.6" decel="4.5" sigma="0.5" color="0,1,0" />
	<vType id="carD" vClass="passenger" length="5" maxSpeed="70" carFollowModel="Krauss" accel="2.6" decel="4.5" sigma="0.5" color="0,0,1" />

  <!-- define route instances -->
	<route id="route1" edges="entry_1 1_2 2_3 3_4 4_exit" />
	<route id="route2" edges="exit_4 4_3 3_2 2_1 1_entry" />
	<route id="route3" edges="1_2 2_3 3_4 4_exit" />


	<!-- define car instances -->
	<vehicle id="ego" type="carA" route="route1" depart="0" />
	<vehicle id="car1" type="carB" route="route2" depart="0" />
	<vehicle id="car2" type="carC" route="route3" depart="0" />

</routes>
