<?xml version="1.0" encoding="UTF-8"?>

<!-- generated on Wed 30 Jan 2019 03:42:54 PM PST by Eclipse SUMO netedit Version 1.1.0
<configuration xmlns:xsi="http://www.w3.org/2001/XMLSchema-instance" xsi:noNamespaceSchemaLocation="http://sumo.dlr.de/xsd/netconvertConfiguration.xsd">

    <input>
        <sumo-net-file value="scenario_1.net.xml"/>
    </input>

    <output>
        <output-file value="scenario_1.net.xml"/>
    </output>

    <processing>
        <geometry.max-grade.fix value="false"/>
        <offset.disable-normalization value="true"/>
        <lefthand value="true"/>
    </processing>

    <junctions>
        <no-turnarounds value="true"/>
        <junctions.corner-detail value="5"/>
        <junctions.limit-turn-speed value="5.5"/>
        <rectangular-lane-cut value="false"/>
    </junctions>

    <pedestrian>
        <walkingareas value="false"/>
    </pedestrian>

</configuration>
-->

<net version="1.1" junctionCornerDetail="5" lefthand="true" limitTurnSpeed="5.50" xmlns:xsi="http://www.w3.org/2001/XMLSchema-instance" xsi:noNamespaceSchemaLocation="http://sumo.dlr.de/xsd/net_file.xsd">

    <location netOffset="0.00,0.00" convBoundary="0.00,-25.00,100.00,0.00" origBoundary="-10000000000.00,-10000000000.00,10000000000.00,10000000000.00" projParameter="!"/>

    <edge id=":node_C_0" function="internal">
        <lane id=":node_C_0_0" index="0" speed="6.51" length="9.03" shape="48.40,-13.60 48.05,-11.15 47.00,-9.40 45.25,-8.35 42.80,-8.00"/>
    </edge>
    <edge id=":node_C_1" function="internal">
        <lane id=":node_C_1_0" index="0" speed="6.51" length="9.03" shape="57.20,-8.00 54.75,-8.35 53.00,-9.40 51.95,-11.15 51.60,-13.60"/>
    </edge>
    <edge id=":node_C_2" function="internal">
        <lane id=":node_C_2_0" index="0" speed="13.89" length="14.40" shape="57.20,-8.00 42.80,-8.00"/>
        <lane id=":node_C_2_1" index="1" speed="13.89" length="14.40" shape="57.20,-4.80 42.80,-4.80"/>
        <lane id=":node_C_2_2" index="2" speed="13.89" length="14.40" shape="57.20,-1.60 42.80,-1.60"/>
    </edge>

    <edge id="CS" from="node_C" to="node_S" priority="-1">
        <lane id="CS_0" index="0" speed="13.89" length="11.40" shape="51.60,-13.60 51.60,-25.00"/>
    </edge>
    <edge id="CW" from="node_C" to="node_W" priority="3">
        <lane id="CW_0" index="0" speed="13.89" length="42.80" shape="42.80,-8.00 0.00,-8.00"/>
        <lane id="CW_1" index="1" speed="13.89" length="42.80" shape="42.80,-4.80 0.00,-4.80"/>
        <lane id="CW_2" index="2" speed="13.89" length="42.80" shape="42.80,-1.60 0.00,-1.60"/>
    </edge>
    <edge id="EC" from="node_E" to="node_C" priority="3">
        <lane id="EC_0" index="0" speed="13.89" length="42.80" shape="100.00,-8.00 57.20,-8.00"/>
        <lane id="EC_1" index="1" speed="13.89" length="42.80" shape="100.00,-4.80 57.20,-4.80"/>
        <lane id="EC_2" index="2" speed="13.89" length="42.80" shape="100.00,-1.60 57.20,-1.60"/>
    </edge>
    <edge id="SC" from="node_S" to="node_C" priority="-1">
        <lane id="SC_0" index="0" speed="13.89" length="11.40" shape="48.40,-25.00 48.40,-13.60"/>
    </edge>

    <junction id="node_C" type="priority" x="50.00" y="0.00" incLanes="SC_0 EC_0 EC_1 EC_2" intLanes=":node_C_0_0 :node_C_1_0 :node_C_2_0 :node_C_2_1 :node_C_2_2" shape="46.80,-13.60 53.20,-13.60 53.64,-11.38 54.20,-10.60 54.98,-10.04 55.98,-9.71 57.20,-9.60 57.20,-0.00 42.80,-0.00 42.80,-9.60 45.02,-10.04 45.80,-10.60 46.36,-11.38 46.69,-12.38">
        <request index="0" response="11100" foes="11100" cont="0"/>
        <request index="1" response="00000" foes="00000" cont="0"/>
        <request index="2" response="00000" foes="00001" cont="0"/>
        <request index="3" response="00000" foes="00001" cont="0"/>
        <request index="4" response="00000" foes="00001" cont="0"/>
    </junction>
    <junction id="node_E" type="dead_end" x="100.00" y="0.00" incLanes="" intLanes="" shape="100.00,-0.00 100.00,-9.60"/>
    <junction id="node_S" type="dead_end" x="50.00" y="-25.00" incLanes="CS_0" intLanes="" shape="50.00,-25.00 53.20,-25.00 50.00,-25.00"/>
    <junction id="node_W" type="dead_end" x="0.00" y="0.00" incLanes="CW_0 CW_1 CW_2" intLanes="" shape="0.00,-9.60 0.00,-0.00"/>

    <connection from="EC" to="CS" fromLane="0" toLane="0" via=":node_C_1_0" dir="l" state="M"/>
    <connection from="EC" to="CW" fromLane="0" toLane="0" via=":node_C_2_0" dir="s" state="M"/>
    <connection from="EC" to="CW" fromLane="1" toLane="1" via=":node_C_2_1" dir="s" state="M"/>
    <connection from="EC" to="CW" fromLane="2" toLane="2" via=":node_C_2_2" dir="s" state="M"/>
    <connection from="SC" to="CW" fromLane="0" toLane="0" via=":node_C_0_0" dir="l" state="m"/>

    <connection from=":node_C_0" to="CW" fromLane="0" toLane="0" dir="l" state="M"/>
    <connection from=":node_C_1" to="CS" fromLane="0" toLane="0" dir="l" state="M"/>
    <connection from=":node_C_2" to="CW" fromLane="0" toLane="0" dir="s" state="M"/>
    <connection from=":node_C_2" to="CW" fromLane="1" toLane="1" dir="s" state="M"/>
    <connection from=":node_C_2" to="CW" fromLane="2" toLane="2" dir="s" state="M"/>

</net>
